Version 4.1
SHEET 1 2836 680
WIRE 960 16 912 16
WIRE 1072 16 1040 16
WIRE 240 32 240 0
WIRE 1072 32 1072 16
WIRE 912 112 912 16
WIRE 96 128 96 96
WIRE 240 128 240 112
WIRE 880 144 832 144
WIRE 1008 144 960 144
WIRE 1280 160 1216 160
WIRE 1408 160 1360 160
WIRE 880 176 768 176
WIRE 1408 192 1408 160
WIRE -80 224 -80 192
WIRE 96 224 96 208
WIRE 896 224 896 208
WIRE 912 224 912 208
WIRE 912 224 896 224
WIRE 928 224 928 208
WIRE 928 224 912 224
WIRE 896 240 896 224
WIRE 1408 272 1408 256
WIRE -240 304 -240 272
WIRE 1168 320 1136 320
WIRE 1328 320 1248 320
WIRE 1792 320 1760 320
WIRE 1952 320 1872 320
WIRE -80 336 -80 304
WIRE 1136 352 1136 320
WIRE 1760 352 1760 320
WIRE 1392 368 1264 368
WIRE 2016 368 1888 368
WIRE -368 384 -368 352
WIRE 1328 400 1328 320
WIRE 1952 400 1952 320
WIRE -240 416 -240 384
WIRE 1264 416 1264 368
WIRE 1296 416 1264 416
WIRE 1888 416 1888 368
WIRE 1920 416 1888 416
WIRE 1392 432 1392 368
WIRE 1392 432 1360 432
WIRE 1440 432 1392 432
WIRE 1664 432 1440 432
WIRE 2016 432 2016 368
WIRE 2016 432 1984 432
WIRE 2064 432 2016 432
WIRE 592 448 544 448
WIRE 688 448 672 448
WIRE 1040 448 960 448
WIRE 1136 448 1120 448
WIRE 1168 448 1136 448
WIRE 1264 448 1248 448
WIRE 1296 448 1264 448
WIRE 1664 448 1664 432
WIRE 1760 448 1744 448
WIRE 1792 448 1760 448
WIRE 1888 448 1872 448
WIRE 1920 448 1888 448
WIRE -368 496 -368 464
WIRE 1264 512 1216 512
WIRE 1888 512 1840 512
WIRE 1216 528 1216 512
WIRE 1328 528 1328 464
WIRE 1488 528 1328 528
WIRE 1600 528 1568 528
WIRE 1840 528 1840 512
WIRE 1952 528 1952 464
WIRE 2112 528 1952 528
WIRE 2224 528 2192 528
WIRE 1136 560 1136 448
WIRE 1232 560 1136 560
WIRE 1440 560 1440 432
WIRE 1440 560 1296 560
WIRE 1760 560 1760 448
WIRE 1856 560 1760 560
WIRE 2064 560 2064 432
WIRE 2064 560 1920 560
FLAG 240 0 V_tri
FLAG 240 128 0
FLAG 96 224 0
FLAG 96 96 V_Saw
FLAG 1216 160 PWM
FLAG 1408 272 0
FLAG 832 144 V_tri
FLAG 1072 32 0
FLAG 896 240 0
FLAG 1008 144 PWM
FLAG -80 336 0
FLAG -80 192 V_Sin
FLAG -240 416 0
FLAG -240 272 V_Square
FLAG -368 352 V_const
FLAG -368 496 0
FLAG 768 176 V_Saw
FLAG 1216 528 0
FLAG 1136 352 0
FLAG 1600 528 0
FLAG 544 448 0
FLAG 688 448 BODE
FLAG 960 448 PWM
FLAG 1840 528 0
FLAG 1760 352 0
FLAG 2224 528 0
SYMBOL voltage 240 16 R0
WINDOW 123 0 0 Left 0
WINDOW 39 0 0 Left 0
SYMATTR InstName V_tri
SYMATTR Value PULSE(0 3.3 0 1.28u 1.28u 0 0)
SYMBOL voltage 96 112 R0
WINDOW 123 0 0 Left 0
WINDOW 39 0 0 Left 0
SYMATTR InstName V_saw
SYMATTR Value PULSE(0 3.3 0 0.0001 0 0 0.0001)
SYMBOL res 1376 144 R90
WINDOW 0 0 56 VBottom 2
WINDOW 3 32 56 VTop 2
SYMATTR InstName R2
SYMATTR Value 1000
SYMBOL cap 1392 192 R0
SYMATTR InstName C1
SYMATTR Value 3.18n
SYMBOL Comparators\\LT1713 912 160 R0
SYMATTR InstName U1
SYMBOL voltage 944 16 R270
WINDOW 0 32 56 VTop 2
WINDOW 3 -32 56 VBottom 2
WINDOW 123 0 0 Left 0
WINDOW 39 0 0 Left 0
SYMATTR InstName V2
SYMATTR Value 3.3
SYMBOL voltage -80 208 R0
WINDOW 123 0 0 Left 0
WINDOW 39 0 0 Left 0
SYMATTR InstName V_sin
SYMATTR Value SINE(1.65 1.65 1000)
SYMBOL voltage -240 288 R0
WINDOW 123 0 0 Left 0
WINDOW 39 0 0 Left 0
SYMATTR InstName V_Square
SYMATTR Value PULSE(0 3.3 0 0 0 0.0005 0.001)
SYMBOL voltage -368 368 R0
WINDOW 123 0 0 Left 0
WINDOW 39 0 0 Left 0
SYMATTR InstName V_const
SYMATTR Value 1.65
SYMBOL res 1264 432 R90
WINDOW 0 0 56 VBottom 2
WINDOW 3 32 56 VTop 2
SYMATTR InstName R1
SYMATTR Value 6.49k
SYMBOL res 1136 432 R90
WINDOW 0 0 56 VBottom 2
WINDOW 3 32 56 VTop 2
SYMATTR InstName R3
SYMATTR Value 6.49k
SYMBOL cap 1248 448 R0
SYMATTR InstName C2
SYMATTR Value 0.47n
SYMBOL cap 1296 544 R90
WINDOW 0 0 32 VBottom 2
WINDOW 3 32 32 VTop 2
SYMATTR InstName C3
SYMATTR Value 0.47n
SYMBOL voltage 1264 320 R90
WINDOW 0 -32 56 VBottom 2
WINDOW 3 32 56 VTop 2
WINDOW 123 0 0 Left 0
WINDOW 39 0 0 Left 0
SYMATTR InstName V1
SYMATTR Value 5
SYMBOL voltage 1472 528 R270
WINDOW 0 32 56 VTop 2
WINDOW 3 -32 56 VBottom 2
WINDOW 123 0 0 Left 0
WINDOW 39 0 0 Left 0
SYMATTR InstName V4
SYMATTR Value -5
SYMBOL voltage 688 448 R90
WINDOW 0 -32 56 VBottom 2
WINDOW 3 32 56 VTop 2
WINDOW 123 60 56 VTop 2
WINDOW 39 0 0 Left 0
SYMATTR InstName V3
SYMATTR Value SINE(1 1 1000)
SYMATTR Value2 AC 1 0
SYMBOL res 1888 432 R90
WINDOW 0 0 56 VBottom 2
WINDOW 3 32 56 VTop 2
SYMATTR InstName R4
SYMATTR Value 6.49k
SYMBOL res 1760 432 R90
WINDOW 0 0 56 VBottom 2
WINDOW 3 32 56 VTop 2
SYMATTR InstName R5
SYMATTR Value 6.49k
SYMBOL cap 1872 448 R0
SYMATTR InstName C4
SYMATTR Value 0.47n
SYMBOL cap 1920 544 R90
WINDOW 0 0 32 VBottom 2
WINDOW 3 32 32 VTop 2
SYMATTR InstName C5
SYMATTR Value 0.47n
SYMBOL voltage 1888 320 R90
WINDOW 0 -32 56 VBottom 2
WINDOW 3 32 56 VTop 2
WINDOW 123 0 0 Left 0
WINDOW 39 0 0 Left 0
SYMATTR InstName V5
SYMATTR Value 5
SYMBOL voltage 2096 528 R270
WINDOW 0 32 56 VTop 2
WINDOW 3 -32 56 VBottom 2
WINDOW 123 0 0 Left 0
WINDOW 39 0 0 Left 0
SYMATTR InstName V6
SYMATTR Value -5
SYMBOL OpAmps\\LT1013 1328 368 R0
SYMATTR InstName U4
SYMBOL OpAmps\\LT1013 1952 368 R0
SYMATTR InstName U2
SYMBOL res 496 -144 R0
SYMATTR InstName R6
TEXT 8 264 Left 2 !.tran 10m
